/*--------------------------------*- C++ -*----------------------------------*\
  =========                 |
  \\      /  F ield         | OpenFOAM: The Open Source CFD Toolbox
   \\    /   O peration     | Website:  https://openfoam.org
    \\  /    A nd           | Version:  7  
     \\/     M anipulation  |
\*---------------------------------------------------------------------------*/
FoamFile
{
    version     2.0;
    format      ascii;
    class       dictionary;
    object      blockMeshDict;
}
// * * * * * * * * * * * * * * * * * * * * * * * * * * * * * * * * * * * * * //

convertToMeters 1;

vertices
(
    (0.00 0.0 0.00 )
    (0.28 0.0 0.00 )
    (0.28 1.5 0.00 )
    (0.00 1.5 0.00 )
    (0.00 0.0 0.025)
    (0.28 0.0 0.025)
    (0.28 1.5 0.025)
    (0.00 1.5 0.025)
);

blocks
(
    hex (0 1 2 3 4 5 6 7) (56 300 5) simpleGrading (1 1 1)
);

edges
(
);

patches
(
    patch inlet
    (
        (1 5 4 0)
    )
    patch outlet
    (
        (3 7 6 2)
    )
    wall walls
    (
        (0 4 7 3)
        (2 6 5 1)
        (0 3 2 1)
        (4 5 6 7)
    )
);

mergePatchPairs
(
);

// ************************************************************************* //
